
&HEAD CHID='0018_MHighA_R3' / ! test
! &VENT MB='XMIN' SURF_ID='OPEN' /
! &VENT MB='XMAX' SURF_ID='OPEN' /
! &VENT MB='YMIN' SURF_ID='OPEN' /
! &VENT MB='YMAX' SURF_ID='OPEN' /
! &VENT MB='ZMAX' SURF_ID='OPEN' /
&TAIL /
! ! Properties for all scenarios
! &PROP ACTIVATION_OBSCURATION=12.0,
!       ID='Smoke Detector',
!       LENGTH=1.8,
!       QUANTITY='CHAMBER OBSCURATION' /

! &MISC MAXIMUM_VISIBILITY=200.0
!       VISIBILITY_FACTOR=8.0 /

! &REAC ID='POLYURETHANE'
!       FUEL='REAC_FUEL'
!       CO_YIELD=0.050000
!       SOOT_YIELD=0.100000
!       IDEAL=.FALSE.
!       C=6.3
!       H=7.1
!       N=1.0 O=2.1 /

! ! Platform level varies from -6.25 to -5.75
! &SLCF PBZ=-4, QUANTITY='VISIBILITY', VECTOR=.FALSE. /
! &SLCF PBZ=-3, QUANTITY='VISIBILITY', VECTOR=.FALSE. /
! &SLCF PBZ=-2, QUANTITY='VISIBILITY', VECTOR=.FALSE. /
! &SLCF PBZ=-1, QUANTITY='VISIBILITY', VECTOR=.FALSE. /
! &SLCF PBZ=0, QUANTITY='VISIBILITY', VECTOR=.FALSE. /

! ! from -242 to 210, 452m
! &SLCF PBY=-216, QUANTITY='VISIBILITY', VECTOR=.FALSE. /
! &SLCF PBY=-165, QUANTITY='VISIBILITY', VECTOR=.FALSE. /
! &SLCF PBY=-115, QUANTITY='VISIBILITY', VECTOR=.FALSE. /
! &SLCF PBY=-65, QUANTITY='VISIBILITY', VECTOR=.FALSE. /
! &SLCF PBY=-15, QUANTITY='VISIBILITY', VECTOR=.FALSE. /
! &SLCF PBY=35, QUANTITY='VISIBILITY', VECTOR=.FALSE. /
! &SLCF PBY=75.5, QUANTITY='VISIBILITY', VECTOR=.FALSE. /
! &SLCF PBY=100.5, QUANTITY='VISIBILITY', VECTOR=.FALSE. /
! &SLCF PBY=135, QUANTITY='VISIBILITY', VECTOR=.FALSE. /
! &SLCF PBY=185, QUANTITY='VISIBILITY', VECTOR=.FALSE. /

! ! x-plane visibility  slices are included in blender geometry

! ISOF QUANTITY='VISIBILITY' VALUE(1)=10.0 VALUE(1)=20.0 /
! ISOF QUANTITY='TEMPERATURE' VALUE(1)=60.0 VALUE(2)=200.0 /

! &MATL ID='STEEL'
!       FYI='Drysdale, Intro to Fire Dynamics - ATF NIST Multi-Floor Validation'
!       SPECIFIC_HEAT=0.46
!       CONDUCTIVITY=45.8
!       DENSITY=7850.0
!       EMISSIVITY=0.95 /


! &SURF ID='Surface02', RGB=146,202,166, BACKING='VOID', MATL_ID(1,1)='STEEL', MATL_MASS_FRACTION(1,1)=1.0, THICKNESS(1)=0.003/
! &SURF ID='BurnerSurf8000', HRRPUA=444.44444444444446, TAU_Q=-848.5281374238571 / Capped 8000.0 kW over 18.0 sqm, EurocodeMedium growth rate
! &SURF ID='BurnerSurf2000', HRRPUA=111.11111111111111, TAU_Q=-424.26406871192853 / Capped 2000.0 kW over 18.0 sqm, EurocodeMedium growth rate

! ! End of free text
! &TIME T_BEGIN=0.0 T_END=1800.0 /
! &MISC  /
! ! DUMP: NFRAMES: Output is dumped every 1.00 s
! &DUMP NFRAMES=1800 DT_ISOF=10.0 PLOT3D_QUANTITY='VISIBILITY','TEMPERATURE','VELOCITY' DT_RESTART=50.0  /
! &SURF ID='3_1' RGB=25,25,25 /
! &SURF ID='96_96_96' RGB=96,96,96 /
! &SURF ID='CarriageSurf' RGB=204,133,43 MATL_ID='STEEL' THICKNESS=0.003 /
! &SURF ID='Color_00' RGB=30,30,30 /
! &SURF ID='Color_01' RGB=20,20,20 /
! &SURF ID='Color_02' RGB=43,42,41 /
! &SURF ID='Color_03' RGB=40,40,40 /
! &SURF ID='Color_A0' RGB=196,45,40 /
! &SURF ID='Color_C0' RGB=219,109,39 /
! &SURF ID='Color_C2' RGB=81,78,71 /
! &SURF ID='Color_D0' RGB=232,224,214 /
! &SURF ID='Color_H2' RGB=60,61,59 /
! &SURF ID='Color_I1' RGB=50,45,99 /
! &SURF ID='Foregrou' RGB=0,0,0 /
! &SURF ID='FrontCol' RGB=255,255,255 /
! &SURF ID='INERT.038' FYI='Predefined SURF' RGB=204,204,51 /
! &SURF ID='MIRROR.001' FYI='Predefined SURF' RGB=51,51,204 /
! &SURF ID='Metal_Co.001' RGB=35,35,35 /
! &SURF ID='OPEN.001' FYI='Predefined SURF' RGB=51,204,204 TRANSPARENCY=0.20 /
! &SURF ID='Platform' FYI='Predefined SURF' RGB=78,204,198 /
! &SURF ID='ProbeMatl' RGB=204,204,204 /
! &SURF ID='RoofSurf' RGB=204,204,51 MATL_ID='STEEL' THICKNESS=0.003 /
! &SURF ID='_Color01' RGB=43,43,43 /
! &SURF ID='_Color02' RGB=37,40,61 /
! &SURF ID='_Color_0' RGB=71,70,70 /
! &SURF ID='_Color_C' RGB=91,81,68 /
! &SURF ID='_Color_I' RGB=56,54,50 /
! &SURF ID='black' RGB=0,0,0 /
! &OBST ID='BurnerHigh' THICKEN=.TRUE. XB=-28.875,-27.375,69.750,81.750,-6.250,-6.000 SURF_IDS='BurnerSurf8000','INERT','INERT' /
! ! OBST: XB: 304 faces
! &OBST ID='FireContainer_0' XB=-29.750,-29.750,63.750,65.000,-6.250,-5.500 SURF_ID='CarriageSurf' THICKEN=.FALSE. /
! &OBST ID='FireContainer_1' XB=-29.750,-29.750,63.750,65.000,-5.500,-4.500 SURF_ID='CarriageSurf' THICKEN=.FALSE. /
! &OBST ID='FireContainer_2' XB=-29.750,-29.750,63.750,65.000,-4.500,-4.000 SURF_ID='CarriageSurf' THICKEN=.FALSE. /
! &OBST ID='FireContainer_3' XB=-29.750,-29.750,65.000,66.250,-6.250,-5.500 SURF_ID='CarriageSurf' THICKEN=.FALSE. /
! &OBST ID='FireContainer_4' XB=-29.750,-29.750,65.000,66.250,-4.500,-4.000 SURF_ID='CarriageSurf' THICKEN=.FALSE. /
! &OBST ID='FireContainer_5' XB=-29.750,-29.750,66.250,66.500,-6.250,-5.500 SURF_ID='CarriageSurf' THICKEN=.FALSE. /
! &OBST ID='FireContainer_6' XB=-29.750,-29.750,66.250,66.500,-5.500,-4.500 SURF_ID='CarriageSurf' THICKEN=.FALSE. /
! &OBST ID='FireContainer_7' XB=-29.750,-29.750,66.250,66.500,-4.500,-4.000 SURF_ID='CarriageSurf' THICKEN=.FALSE. /
! &OBST ID='FireContainer_8' XB=-29.750,-29.750,67.750,68.250,-6.250,-5.500 SURF_ID='CarriageSurf' THICKEN=.FALSE. /
! &OBST ID='FireContainer_9' XB=-29.750,-29.750,67.750,68.250,-5.500,-4.500 SURF_ID='CarriageSurf' THICKEN=.FALSE. /
! &OBST ID='FireContainer_10' XB=-29.750,-29.750,67.750,68.250,-4.500,-4.000 SURF_ID='CarriageSurf' THICKEN=.FALSE. /
! &OBST ID='FireContainer_11' XB=-29.750,-29.750,68.250,69.250,-6.250,-5.500 SURF_ID='CarriageSurf' THICKEN=.FALSE. /
! &OBST ID='FireContainer_12' XB=-29.750,-29.750,68.250,69.250,-5.500,-4.500 SURF_ID='CarriageSurf' THICKEN=.FALSE. /
! &OBST ID='FireContainer_13' XB=-29.750,-29.750,68.250,69.250,-4.500,-4.000 SURF_ID='CarriageSurf' THICKEN=.FALSE. /
! &OBST ID='FireContainer_14' XB=-29.750,-29.750,69.250,69.750,-6.250,-5.500 SURF_ID='CarriageSurf' THICKEN=.FALSE. /
! &OBST ID='FireContainer_15' XB=-29.750,-29.750,69.250,69.750,-5.500,-4.500 SURF_ID='CarriageSurf' THICKEN=.FALSE. /
! &OBST ID='FireContainer_16' XB=-29.750,-29.750,69.250,69.750,-4.500,-4.000 SURF_ID='CarriageSurf' THICKEN=.FALSE. /
! &OBST ID='FireContainer_17' XB=-29.750,-29.750,69.750,71.250,-6.250,-5.500 SURF_ID='CarriageSurf' THICKEN=.FALSE. /
! &OBST ID='FireContainer_18' XB=-29.750,-29.750,69.750,71.250,-4.500,-4.000 SURF_ID='CarriageSurf' THICKEN=.FALSE. /
! &OBST ID='FireContainer_19' XB=-29.750,-29.750,71.250,71.500,-6.250,-5.500 SURF_ID='CarriageSurf' THICKEN=.FALSE. /
! &OBST ID='FireContainer_20' XB=-29.750,-29.750,71.250,71.500,-4.500,-4.000 SURF_ID='CarriageSurf' THICKEN=.FALSE. /
! &OBST ID='FireContainer_21' XB=-29.750,-29.750,71.500,73.000,-6.250,-5.500 SURF_ID='CarriageSurf' THICKEN=.FALSE. /
! &OBST ID='FireContainer_22' XB=-29.750,-29.750,71.500,73.000,-4.500,-4.000 SURF_ID='CarriageSurf' THICKEN=.FALSE. /
! &OBST ID='FireContainer_23' XB=-29.750,-29.750,73.000,73.500,-6.250,-5.500 SURF_ID='CarriageSurf' THICKEN=.FALSE. /
! &OBST ID='FireContainer_24' XB=-29.750,-29.750,73.000,73.500,-4.500,-4.000 SURF_ID='CarriageSurf' THICKEN=.FALSE. /
! &OBST ID='FireContainer_25' XB=-29.750,-29.750,73.500,75.000,-6.250,-5.500 SURF_ID='CarriageSurf' THICKEN=.FALSE. /
! &OBST ID='FireContainer_26' XB=-29.750,-29.750,73.500,75.000,-4.500,-4.000 SURF_ID='CarriageSurf' THICKEN=.FALSE. /
! &OBST ID='FireContainer_27' XB=-29.750,-29.750,75.000,75.250,-6.250,-5.500 SURF_ID='CarriageSurf' THICKEN=.FALSE. /
! &OBST ID='FireContainer_28' XB=-29.750,-29.750,75.000,75.250,-5.500,-4.500 SURF_ID='CarriageSurf' THICKEN=.FALSE. /
! &OBST ID='FireContainer_29' XB=-29.750,-29.750,75.000,75.250,-4.500,-4.000 SURF_ID='CarriageSurf' THICKEN=.FALSE. /
! &OBST ID='FireContainer_30' XB=-29.750,-29.750,75.250,76.500,-6.250,-5.500 SURF_ID='CarriageSurf' THICKEN=.FALSE. /
! &OBST ID='FireContainer_31' XB=-29.750,-29.750,75.250,76.500,-4.500,-4.000 SURF_ID='CarriageSurf' THICKEN=.FALSE. /
! &OBST ID='FireContainer_32' XB=-29.750,-29.750,76.500,76.750,-6.250,-5.500 SURF_ID='CarriageSurf' THICKEN=.FALSE. /
! &OBST ID='FireContainer_33' XB=-29.750,-29.750,76.500,76.750,-5.500,-4.500 SURF_ID='CarriageSurf' THICKEN=.FALSE. /
! &OBST ID='FireContainer_34' XB=-29.750,-29.750,76.500,76.750,-4.500,-4.000 SURF_ID='CarriageSurf' THICKEN=.FALSE. /
! &OBST ID='FireContainer_35' XB=-29.750,-29.750,76.750,78.000,-6.250,-5.500 SURF_ID='CarriageSurf' THICKEN=.FALSE. /
! &OBST ID='FireContainer_36' XB=-29.750,-29.750,76.750,78.000,-4.500,-4.000 SURF_ID='CarriageSurf' THICKEN=.FALSE. /
! &OBST ID='FireContainer_37' XB=-29.750,-29.750,78.000,78.500,-6.250,-5.500 SURF_ID='CarriageSurf' THICKEN=.FALSE. /
! &OBST ID='FireContainer_38' XB=-29.750,-29.750,78.000,78.500,-5.500,-4.500 SURF_ID='CarriageSurf' THICKEN=.FALSE. /
! &OBST ID='FireContainer_39' XB=-29.750,-29.750,78.000,78.500,-4.500,-4.000 SURF_ID='CarriageSurf' THICKEN=.FALSE. /
! &OBST ID='FireContainer_40' XB=-29.750,-29.750,78.500,79.500,-6.250,-5.500 SURF_ID='CarriageSurf' THICKEN=.FALSE. /
! &OBST ID='FireContainer_41' XB=-29.750,-29.750,78.500,79.500,-4.500,-4.000 SURF_ID='CarriageSurf' THICKEN=.FALSE. /
! &OBST ID='FireContainer_42' XB=-29.750,-29.750,79.500,80.250,-6.250,-5.500 SURF_ID='CarriageSurf' THICKEN=.FALSE. /
! &OBST ID='FireContainer_43' XB=-29.750,-29.750,79.500,80.250,-5.500,-4.500 SURF_ID='CarriageSurf' THICKEN=.FALSE. /
! &OBST ID='FireContainer_44' XB=-29.750,-29.750,79.500,80.250,-4.500,-4.000 SURF_ID='CarriageSurf' THICKEN=.FALSE. /
! &OBST ID='FireContainer_45' XB=-29.750,-29.750,81.500,82.000,-6.250,-5.500 SURF_ID='CarriageSurf' THICKEN=.FALSE. /
! &OBST ID='FireContainer_46' XB=-29.750,-29.750,81.500,82.000,-5.500,-4.500 SURF_ID='CarriageSurf' THICKEN=.FALSE. /
! &OBST ID='FireContainer_47' XB=-29.750,-29.750,81.500,82.000,-4.500,-4.000 SURF_ID='CarriageSurf' THICKEN=.FALSE. /
! &OBST ID='FireContainer_48' XB=-29.750,-29.750,82.000,83.000,-6.250,-5.500 SURF_ID='CarriageSurf' THICKEN=.FALSE. /
! &OBST ID='FireContainer_49' XB=-29.750,-29.750,82.000,83.000,-5.500,-4.500 SURF_ID='CarriageSurf' THICKEN=.FALSE. /
! &OBST ID='FireContainer_50' XB=-29.750,-29.750,82.000,83.000,-4.500,-4.000 SURF_ID='CarriageSurf' THICKEN=.FALSE. /
! &OBST ID='FireContainer_51' XB=-29.750,-29.750,83.000,83.500,-6.250,-5.500 SURF_ID='CarriageSurf' THICKEN=.FALSE. /
! &OBST ID='FireContainer_52' XB=-29.750,-29.750,83.000,83.500,-5.500,-4.500 SURF_ID='CarriageSurf' THICKEN=.FALSE. /
! &OBST ID='FireContainer_53' XB=-29.750,-29.750,83.000,83.500,-4.500,-4.000 SURF_ID='CarriageSurf' THICKEN=.FALSE. /
! &OBST ID='FireContainer_54' XB=-29.750,-29.750,83.500,84.750,-6.250,-5.500 SURF_ID='CarriageSurf' THICKEN=.FALSE. /
! &OBST ID='FireContainer_55' XB=-29.750,-29.750,83.500,84.750,-5.500,-4.500 SURF_ID='CarriageSurf' THICKEN=.FALSE. /
! &OBST ID='FireContainer_56' XB=-29.750,-29.750,83.500,84.750,-4.500,-4.000 SURF_ID='CarriageSurf' THICKEN=.FALSE. /
! &OBST ID='FireContainer_57' XB=-29.750,-29.750,84.750,85.000,-6.250,-5.500 SURF_ID='CarriageSurf' THICKEN=.FALSE. /
! &OBST ID='FireContainer_58' XB=-29.750,-29.750,84.750,85.000,-5.500,-4.500 SURF_ID='CarriageSurf' THICKEN=.FALSE. /
! &OBST ID='FireContainer_59' XB=-29.750,-29.750,84.750,85.000,-4.500,-4.000 SURF_ID='CarriageSurf' THICKEN=.FALSE. /
! &OBST ID='FireContainer_60' XB=-29.750,-29.750,85.000,86.250,-6.250,-5.500 SURF_ID='CarriageSurf' THICKEN=.FALSE. /
! &OBST ID='FireContainer_61' XB=-29.750,-29.750,85.000,86.250,-4.500,-4.000 SURF_ID='CarriageSurf' THICKEN=.FALSE. /
! &OBST ID='FireContainer_62' XB=-29.750,-29.750,86.250,87.750,-6.250,-5.500 SURF_ID='CarriageSurf' THICKEN=.FALSE. /
! &OBST ID='FireContainer_63' XB=-29.750,-29.750,86.250,87.750,-5.500,-4.500 SURF_ID='CarriageSurf' THICKEN=.FALSE. /
! &OBST ID='FireContainer_64' XB=-29.750,-29.750,86.250,87.750,-4.500,-4.000 SURF_ID='CarriageSurf' THICKEN=.FALSE. /
! &OBST ID='FireContainer_65' XB=-29.750,-28.750,63.750,63.750,-6.250,-5.500 SURF_ID='CarriageSurf' THICKEN=.FALSE. /
! &OBST ID='FireContainer_66' XB=-29.750,-28.750,63.750,63.750,-5.500,-4.500 SURF_ID='CarriageSurf' THICKEN=.FALSE. /
! &OBST ID='FireContainer_67' XB=-29.750,-28.750,63.750,63.750,-4.500,-4.000 SURF_ID='CarriageSurf' THICKEN=.FALSE. /
! &OBST ID='FireContainer_68' XB=-29.750,-28.750,63.750,65.000,-6.250,-6.250 SURF_ID='CarriageSurf' THICKEN=.FALSE. /
! &OBST ID='FireContainer_69' XB=-29.750,-28.750,63.750,65.000,-4.000,-4.000 SURF_ID='CarriageSurf' THICKEN=.FALSE. /
! &OBST ID='FireContainer_70' XB=-29.750,-28.750,65.000,66.250,-6.250,-6.250 SURF_ID='CarriageSurf' THICKEN=.FALSE. /
! &OBST ID='FireContainer_71' XB=-29.750,-28.750,65.000,66.250,-4.000,-4.000 SURF_ID='CarriageSurf' THICKEN=.FALSE. /
! &OBST ID='FireContainer_72' XB=-29.750,-28.750,66.250,66.500,-6.250,-6.250 SURF_ID='CarriageSurf' THICKEN=.FALSE. /
! &OBST ID='FireContainer_73' XB=-29.750,-28.750,66.250,66.500,-4.000,-4.000 SURF_ID='CarriageSurf' THICKEN=.FALSE. /
! &OBST ID='FireContainer_74' XB=-29.750,-28.750,66.500,67.750,-6.250,-6.250 SURF_ID='CarriageSurf' THICKEN=.FALSE. /
! &OBST ID='FireContainer_75' XB=-29.750,-28.750,66.500,67.750,-4.000,-4.000 SURF_ID='CarriageSurf' THICKEN=.FALSE. /
! &OBST ID='FireContainer_76' XB=-29.750,-28.750,67.750,68.250,-6.250,-6.250 SURF_ID='CarriageSurf' THICKEN=.FALSE. /
! &OBST ID='FireContainer_77' XB=-29.750,-28.750,67.750,68.250,-4.000,-4.000 SURF_ID='CarriageSurf' THICKEN=.FALSE. /
! &OBST ID='FireContainer_78' XB=-29.750,-28.750,68.250,69.250,-6.250,-6.250 SURF_ID='CarriageSurf' THICKEN=.FALSE. /
! &OBST ID='FireContainer_79' XB=-29.750,-28.750,68.250,69.250,-4.000,-4.000 SURF_ID='CarriageSurf' THICKEN=.FALSE. /
! &OBST ID='FireContainer_80' XB=-29.750,-28.750,69.250,69.750,-6.250,-6.250 SURF_ID='CarriageSurf' THICKEN=.FALSE. /
! &OBST ID='FireContainer_81' XB=-29.750,-28.750,69.250,69.750,-4.000,-4.000 SURF_ID='CarriageSurf' THICKEN=.FALSE. /
! &OBST ID='FireContainer_82' XB=-29.750,-28.750,69.750,71.250,-6.250,-6.250 SURF_ID='CarriageSurf' THICKEN=.FALSE. /
! &OBST ID='FireContainer_83' XB=-29.750,-28.750,69.750,71.250,-4.000,-4.000 SURF_ID='CarriageSurf' THICKEN=.FALSE. /
! &OBST ID='FireContainer_84' XB=-29.750,-28.750,71.250,71.500,-6.250,-6.250 SURF_ID='CarriageSurf' THICKEN=.FALSE. /
! &OBST ID='FireContainer_85' XB=-29.750,-28.750,71.250,71.500,-4.000,-4.000 SURF_ID='CarriageSurf' THICKEN=.FALSE. /
! &OBST ID='FireContainer_86' XB=-29.750,-28.750,71.500,73.000,-6.250,-6.250 SURF_ID='CarriageSurf' THICKEN=.FALSE. /
! &OBST ID='FireContainer_87' XB=-29.750,-28.750,71.500,73.000,-4.000,-4.000 SURF_ID='CarriageSurf' THICKEN=.FALSE. /
! &OBST ID='FireContainer_88' XB=-29.750,-28.750,73.000,73.500,-6.250,-6.250 SURF_ID='CarriageSurf' THICKEN=.FALSE. /
! &OBST ID='FireContainer_89' XB=-29.750,-28.750,73.000,73.500,-4.000,-4.000 SURF_ID='CarriageSurf' THICKEN=.FALSE. /
! &OBST ID='FireContainer_90' XB=-29.750,-28.750,73.500,75.000,-6.250,-6.250 SURF_ID='CarriageSurf' THICKEN=.FALSE. /
! &OBST ID='FireContainer_91' XB=-29.750,-28.750,73.500,75.000,-4.000,-4.000 SURF_ID='CarriageSurf' THICKEN=.FALSE. /
! &OBST ID='FireContainer_92' XB=-29.750,-28.750,75.000,75.250,-6.250,-6.250 SURF_ID='CarriageSurf' THICKEN=.FALSE. /
! &OBST ID='FireContainer_93' XB=-29.750,-28.750,75.000,75.250,-4.000,-4.000 SURF_ID='CarriageSurf' THICKEN=.FALSE. /
! &OBST ID='FireContainer_94' XB=-29.750,-28.750,75.250,76.500,-6.250,-6.250 SURF_ID='CarriageSurf' THICKEN=.FALSE. /
! &OBST ID='FireContainer_95' XB=-29.750,-28.750,75.250,76.500,-4.000,-4.000 SURF_ID='CarriageSurf' THICKEN=.FALSE. /
! &OBST ID='FireContainer_96' XB=-29.750,-28.750,76.500,76.750,-6.250,-6.250 SURF_ID='CarriageSurf' THICKEN=.FALSE. /
! &OBST ID='FireContainer_97' XB=-29.750,-28.750,76.500,76.750,-4.000,-4.000 SURF_ID='CarriageSurf' THICKEN=.FALSE. /
! &OBST ID='FireContainer_98' XB=-29.750,-28.750,76.750,78.000,-6.250,-6.250 SURF_ID='CarriageSurf' THICKEN=.FALSE. /
! &OBST ID='FireContainer_99' XB=-29.750,-28.750,76.750,78.000,-4.000,-4.000 SURF_ID='CarriageSurf' THICKEN=.FALSE. /
! &OBST ID='FireContainer_100' XB=-29.750,-28.750,78.000,78.500,-6.250,-6.250 SURF_ID='CarriageSurf' THICKEN=.FALSE. /
! &OBST ID='FireContainer_101' XB=-29.750,-28.750,78.000,78.500,-4.000,-4.000 SURF_ID='CarriageSurf' THICKEN=.FALSE. /
! &OBST ID='FireContainer_102' XB=-29.750,-28.750,78.500,79.500,-6.250,-6.250 SURF_ID='CarriageSurf' THICKEN=.FALSE. /
! &OBST ID='FireContainer_103' XB=-29.750,-28.750,78.500,79.500,-4.000,-4.000 SURF_ID='CarriageSurf' THICKEN=.FALSE. /
! &OBST ID='FireContainer_104' XB=-29.750,-28.750,79.500,80.250,-6.250,-6.250 SURF_ID='CarriageSurf' THICKEN=.FALSE. /
! &OBST ID='FireContainer_105' XB=-29.750,-28.750,79.500,80.250,-4.000,-4.000 SURF_ID='CarriageSurf' THICKEN=.FALSE. /
! &OBST ID='FireContainer_106' XB=-29.750,-28.750,80.250,81.500,-6.250,-6.250 SURF_ID='CarriageSurf' THICKEN=.FALSE. /
! &OBST ID='FireContainer_107' XB=-29.750,-28.750,80.250,81.500,-4.000,-4.000 SURF_ID='CarriageSurf' THICKEN=.FALSE. /
! &OBST ID='FireContainer_108' XB=-29.750,-28.750,81.500,82.000,-6.250,-6.250 SURF_ID='CarriageSurf' THICKEN=.FALSE. /
! &OBST ID='FireContainer_109' XB=-29.750,-28.750,81.500,82.000,-4.000,-4.000 SURF_ID='CarriageSurf' THICKEN=.FALSE. /
! &OBST ID='FireContainer_110' XB=-29.750,-28.750,82.000,83.000,-6.250,-6.250 SURF_ID='CarriageSurf' THICKEN=.FALSE. /
! &OBST ID='FireContainer_111' XB=-29.750,-28.750,82.000,83.000,-4.000,-4.000 SURF_ID='CarriageSurf' THICKEN=.FALSE. /
! &OBST ID='FireContainer_112' XB=-29.750,-28.750,83.000,83.500,-6.250,-6.250 SURF_ID='CarriageSurf' THICKEN=.FALSE. /
! &OBST ID='FireContainer_113' XB=-29.750,-28.750,83.000,83.500,-4.000,-4.000 SURF_ID='CarriageSurf' THICKEN=.FALSE. /
! &OBST ID='FireContainer_114' XB=-29.750,-28.750,83.500,84.750,-6.250,-6.250 SURF_ID='CarriageSurf' THICKEN=.FALSE. /
! &OBST ID='FireContainer_115' XB=-29.750,-28.750,83.500,84.750,-4.000,-4.000 SURF_ID='CarriageSurf' THICKEN=.FALSE. /
! &OBST ID='FireContainer_116' XB=-29.750,-28.750,84.750,85.000,-6.250,-6.250 SURF_ID='CarriageSurf' THICKEN=.FALSE. /
! &OBST ID='FireContainer_117' XB=-29.750,-28.750,84.750,85.000,-4.000,-4.000 SURF_ID='CarriageSurf' THICKEN=.FALSE. /
! &OBST ID='FireContainer_118' XB=-29.750,-28.750,85.000,86.250,-6.250,-6.250 SURF_ID='CarriageSurf' THICKEN=.FALSE. /
! &OBST ID='FireContainer_119' XB=-29.750,-28.750,85.000,86.250,-4.000,-4.000 SURF_ID='CarriageSurf' THICKEN=.FALSE. /
! &OBST ID='FireContainer_120' XB=-29.750,-28.750,86.250,87.750,-6.250,-6.250 SURF_ID='CarriageSurf' THICKEN=.FALSE. /
! &OBST ID='FireContainer_121' XB=-29.750,-28.750,86.250,87.750,-4.000,-4.000 SURF_ID='CarriageSurf' THICKEN=.FALSE. /
! &OBST ID='FireContainer_122' XB=-29.750,-28.750,87.750,87.750,-6.250,-5.500 SURF_ID='CarriageSurf' THICKEN=.FALSE. /
! &OBST ID='FireContainer_123' XB=-29.750,-28.750,87.750,87.750,-5.500,-4.500 SURF_ID='CarriageSurf' THICKEN=.FALSE. /
! &OBST ID='FireContainer_124' XB=-29.750,-28.750,87.750,87.750,-4.500,-4.000 SURF_ID='CarriageSurf' THICKEN=.FALSE. /
! &OBST ID='FireContainer_125' XB=-28.750,-27.750,63.750,65.000,-6.250,-6.250 SURF_ID='CarriageSurf' THICKEN=.FALSE. /
! &OBST ID='FireContainer_126' XB=-28.750,-27.750,63.750,65.000,-4.000,-4.000 SURF_ID='CarriageSurf' THICKEN=.FALSE. /
! &OBST ID='FireContainer_127' XB=-28.750,-27.750,65.000,66.250,-6.250,-6.250 SURF_ID='CarriageSurf' THICKEN=.FALSE. /
! &OBST ID='FireContainer_128' XB=-28.750,-27.750,65.000,66.250,-4.000,-4.000 SURF_ID='CarriageSurf' THICKEN=.FALSE. /
! &OBST ID='FireContainer_129' XB=-28.750,-27.750,66.250,66.500,-6.250,-6.250 SURF_ID='CarriageSurf' THICKEN=.FALSE. /
! &OBST ID='FireContainer_130' XB=-28.750,-27.750,66.250,66.500,-4.000,-4.000 SURF_ID='CarriageSurf' THICKEN=.FALSE. /
! &OBST ID='FireContainer_131' XB=-28.750,-27.750,66.500,67.750,-6.250,-6.250 SURF_ID='CarriageSurf' THICKEN=.FALSE. /
! &OBST ID='FireContainer_132' XB=-28.750,-27.750,66.500,67.750,-4.000,-4.000 SURF_ID='CarriageSurf' THICKEN=.FALSE. /
! &OBST ID='FireContainer_133' XB=-28.750,-27.750,67.750,68.250,-6.250,-6.250 SURF_ID='CarriageSurf' THICKEN=.FALSE. /
! &OBST ID='FireContainer_134' XB=-28.750,-27.750,67.750,68.250,-4.000,-4.000 SURF_ID='CarriageSurf' THICKEN=.FALSE. /
! &OBST ID='FireContainer_135' XB=-28.750,-27.750,68.250,69.250,-6.250,-6.250 SURF_ID='CarriageSurf' THICKEN=.FALSE. /
! &OBST ID='FireContainer_136' XB=-28.750,-27.750,68.250,69.250,-4.000,-4.000 SURF_ID='CarriageSurf' THICKEN=.FALSE. /
! &OBST ID='FireContainer_137' XB=-28.750,-27.750,69.250,69.750,-6.250,-6.250 SURF_ID='CarriageSurf' THICKEN=.FALSE. /
! &OBST ID='FireContainer_138' XB=-28.750,-27.750,69.250,69.750,-4.000,-4.000 SURF_ID='CarriageSurf' THICKEN=.FALSE. /
! &OBST ID='FireContainer_139' XB=-28.750,-27.750,69.750,71.250,-6.250,-6.250 SURF_ID='CarriageSurf' THICKEN=.FALSE. /
! &OBST ID='FireContainer_140' XB=-28.750,-27.750,69.750,71.250,-4.000,-4.000 SURF_ID='CarriageSurf' THICKEN=.FALSE. /
! &OBST ID='FireContainer_141' XB=-28.750,-27.750,71.250,71.500,-6.250,-6.250 SURF_ID='CarriageSurf' THICKEN=.FALSE. /
! &OBST ID='FireContainer_142' XB=-28.750,-27.750,71.250,71.500,-4.000,-4.000 SURF_ID='CarriageSurf' THICKEN=.FALSE. /
! &OBST ID='FireContainer_143' XB=-28.750,-27.750,71.500,73.000,-6.250,-6.250 SURF_ID='CarriageSurf' THICKEN=.FALSE. /
! &OBST ID='FireContainer_144' XB=-28.750,-27.750,71.500,73.000,-4.000,-4.000 SURF_ID='CarriageSurf' THICKEN=.FALSE. /
! &OBST ID='FireContainer_145' XB=-28.750,-27.750,73.000,73.500,-6.250,-6.250 SURF_ID='CarriageSurf' THICKEN=.FALSE. /
! &OBST ID='FireContainer_146' XB=-28.750,-27.750,73.000,73.500,-4.000,-4.000 SURF_ID='CarriageSurf' THICKEN=.FALSE. /
! &OBST ID='FireContainer_147' XB=-28.750,-27.750,73.500,75.000,-6.250,-6.250 SURF_ID='CarriageSurf' THICKEN=.FALSE. /
! &OBST ID='FireContainer_148' XB=-28.750,-27.750,73.500,75.000,-4.000,-4.000 SURF_ID='CarriageSurf' THICKEN=.FALSE. /
! &OBST ID='FireContainer_149' XB=-28.750,-27.750,75.000,75.250,-6.250,-6.250 SURF_ID='CarriageSurf' THICKEN=.FALSE. /
! &OBST ID='FireContainer_150' XB=-28.750,-27.750,75.000,75.250,-4.000,-4.000 SURF_ID='CarriageSurf' THICKEN=.FALSE. /
! &OBST ID='FireContainer_151' XB=-28.750,-27.750,75.250,76.500,-6.250,-6.250 SURF_ID='CarriageSurf' THICKEN=.FALSE. /
! &OBST ID='FireContainer_152' XB=-28.750,-27.750,75.250,76.500,-4.000,-4.000 SURF_ID='CarriageSurf' THICKEN=.FALSE. /
! &OBST ID='FireContainer_153' XB=-28.750,-27.750,76.500,76.750,-6.250,-6.250 SURF_ID='CarriageSurf' THICKEN=.FALSE. /
! &OBST ID='FireContainer_154' XB=-28.750,-27.750,76.500,76.750,-4.000,-4.000 SURF_ID='CarriageSurf' THICKEN=.FALSE. /
! &OBST ID='FireContainer_155' XB=-28.750,-27.750,76.750,78.000,-6.250,-6.250 SURF_ID='CarriageSurf' THICKEN=.FALSE. /
! &OBST ID='FireContainer_156' XB=-28.750,-27.750,76.750,78.000,-4.000,-4.000 SURF_ID='CarriageSurf' THICKEN=.FALSE. /
! &OBST ID='FireContainer_157' XB=-28.750,-27.750,78.000,78.500,-6.250,-6.250 SURF_ID='CarriageSurf' THICKEN=.FALSE. /
! &OBST ID='FireContainer_158' XB=-28.750,-27.750,78.000,78.500,-4.000,-4.000 SURF_ID='CarriageSurf' THICKEN=.FALSE. /
! &OBST ID='FireContainer_159' XB=-28.750,-27.750,78.500,79.500,-6.250,-6.250 SURF_ID='CarriageSurf' THICKEN=.FALSE. /
! &OBST ID='FireContainer_160' XB=-28.750,-27.750,78.500,79.500,-4.000,-4.000 SURF_ID='CarriageSurf' THICKEN=.FALSE. /
! &OBST ID='FireContainer_161' XB=-28.750,-27.750,79.500,80.250,-6.250,-6.250 SURF_ID='CarriageSurf' THICKEN=.FALSE. /
! &OBST ID='FireContainer_162' XB=-28.750,-27.750,79.500,80.250,-4.000,-4.000 SURF_ID='CarriageSurf' THICKEN=.FALSE. /
! &OBST ID='FireContainer_163' XB=-28.750,-27.750,80.250,81.500,-6.250,-6.250 SURF_ID='CarriageSurf' THICKEN=.FALSE. /
! &OBST ID='FireContainer_164' XB=-28.750,-27.750,80.250,81.500,-4.000,-4.000 SURF_ID='CarriageSurf' THICKEN=.FALSE. /
! &OBST ID='FireContainer_165' XB=-28.750,-27.750,81.500,82.000,-6.250,-6.250 SURF_ID='CarriageSurf' THICKEN=.FALSE. /
! &OBST ID='FireContainer_166' XB=-28.750,-27.750,81.500,82.000,-4.000,-4.000 SURF_ID='CarriageSurf' THICKEN=.FALSE. /
! &OBST ID='FireContainer_167' XB=-28.750,-27.750,82.000,83.000,-6.250,-6.250 SURF_ID='CarriageSurf' THICKEN=.FALSE. /
! &OBST ID='FireContainer_168' XB=-28.750,-27.750,82.000,83.000,-4.000,-4.000 SURF_ID='CarriageSurf' THICKEN=.FALSE. /
! &OBST ID='FireContainer_169' XB=-28.750,-27.750,83.000,83.500,-6.250,-6.250 SURF_ID='CarriageSurf' THICKEN=.FALSE. /
! &OBST ID='FireContainer_170' XB=-28.750,-27.750,83.000,83.500,-4.000,-4.000 SURF_ID='CarriageSurf' THICKEN=.FALSE. /
! &OBST ID='FireContainer_171' XB=-28.750,-27.750,83.500,84.750,-6.250,-6.250 SURF_ID='CarriageSurf' THICKEN=.FALSE. /
! &OBST ID='FireContainer_172' XB=-28.750,-27.750,83.500,84.750,-4.000,-4.000 SURF_ID='CarriageSurf' THICKEN=.FALSE. /
! &OBST ID='FireContainer_173' XB=-28.750,-27.750,84.750,85.000,-6.250,-6.250 SURF_ID='CarriageSurf' THICKEN=.FALSE. /
! &OBST ID='FireContainer_174' XB=-28.750,-27.750,84.750,85.000,-4.000,-4.000 SURF_ID='CarriageSurf' THICKEN=.FALSE. /
! &OBST ID='FireContainer_175' XB=-28.750,-27.750,85.000,86.250,-6.250,-6.250 SURF_ID='CarriageSurf' THICKEN=.FALSE. /
! &OBST ID='FireContainer_176' XB=-28.750,-27.750,85.000,86.250,-4.000,-4.000 SURF_ID='CarriageSurf' THICKEN=.FALSE. /
! &OBST ID='FireContainer_177' XB=-28.750,-27.750,86.250,87.750,-6.250,-6.250 SURF_ID='CarriageSurf' THICKEN=.FALSE. /
! &OBST ID='FireContainer_178' XB=-28.750,-27.750,86.250,87.750,-4.000,-4.000 SURF_ID='CarriageSurf' THICKEN=.FALSE. /
! &OBST ID='FireContainer_179' XB=-27.750,-26.750,63.750,63.750,-6.250,-5.500 SURF_ID='CarriageSurf' THICKEN=.FALSE. /
! &OBST ID='FireContainer_180' XB=-27.750,-26.750,63.750,63.750,-5.500,-4.500 SURF_ID='CarriageSurf' THICKEN=.FALSE. /
! &OBST ID='FireContainer_181' XB=-27.750,-26.750,63.750,63.750,-4.500,-4.000 SURF_ID='CarriageSurf' THICKEN=.FALSE. /
! &OBST ID='FireContainer_182' XB=-27.750,-26.750,63.750,65.000,-6.250,-6.250 SURF_ID='CarriageSurf' THICKEN=.FALSE. /
! &OBST ID='FireContainer_183' XB=-27.750,-26.750,63.750,65.000,-4.000,-4.000 SURF_ID='CarriageSurf' THICKEN=.FALSE. /
! &OBST ID='FireContainer_184' XB=-27.750,-26.750,65.000,66.250,-6.250,-6.250 SURF_ID='CarriageSurf' THICKEN=.FALSE. /
! &OBST ID='FireContainer_185' XB=-27.750,-26.750,65.000,66.250,-4.000,-4.000 SURF_ID='CarriageSurf' THICKEN=.FALSE. /
! &OBST ID='FireContainer_186' XB=-27.750,-26.750,66.250,66.500,-6.250,-6.250 SURF_ID='CarriageSurf' THICKEN=.FALSE. /
! &OBST ID='FireContainer_187' XB=-27.750,-26.750,66.250,66.500,-4.000,-4.000 SURF_ID='CarriageSurf' THICKEN=.FALSE. /
! &OBST ID='FireContainer_188' XB=-27.750,-26.750,66.500,67.750,-6.250,-6.250 SURF_ID='CarriageSurf' THICKEN=.FALSE. /
! &OBST ID='FireContainer_189' XB=-27.750,-26.750,66.500,67.750,-4.000,-4.000 SURF_ID='CarriageSurf' THICKEN=.FALSE. /
! &OBST ID='FireContainer_190' XB=-27.750,-26.750,67.750,68.250,-6.250,-6.250 SURF_ID='CarriageSurf' THICKEN=.FALSE. /
! &OBST ID='FireContainer_191' XB=-27.750,-26.750,67.750,68.250,-4.000,-4.000 SURF_ID='CarriageSurf' THICKEN=.FALSE. /
! &OBST ID='FireContainer_192' XB=-27.750,-26.750,68.250,69.250,-6.250,-6.250 SURF_ID='CarriageSurf' THICKEN=.FALSE. /
! &OBST ID='FireContainer_193' XB=-27.750,-26.750,68.250,69.250,-4.000,-4.000 SURF_ID='CarriageSurf' THICKEN=.FALSE. /
! &OBST ID='FireContainer_194' XB=-27.750,-26.750,69.250,69.750,-6.250,-6.250 SURF_ID='CarriageSurf' THICKEN=.FALSE. /
! &OBST ID='FireContainer_195' XB=-27.750,-26.750,69.250,69.750,-4.000,-4.000 SURF_ID='CarriageSurf' THICKEN=.FALSE. /
! &OBST ID='FireContainer_196' XB=-27.750,-26.750,69.750,71.250,-6.250,-6.250 SURF_ID='CarriageSurf' THICKEN=.FALSE. /
! &OBST ID='FireContainer_197' XB=-27.750,-26.750,69.750,71.250,-4.000,-4.000 SURF_ID='CarriageSurf' THICKEN=.FALSE. /
! &OBST ID='FireContainer_198' XB=-27.750,-26.750,71.250,71.500,-6.250,-6.250 SURF_ID='CarriageSurf' THICKEN=.FALSE. /
! &OBST ID='FireContainer_199' XB=-27.750,-26.750,71.250,71.500,-4.000,-4.000 SURF_ID='CarriageSurf' THICKEN=.FALSE. /
! &OBST ID='FireContainer_200' XB=-27.750,-26.750,71.500,73.000,-6.250,-6.250 SURF_ID='CarriageSurf' THICKEN=.FALSE. /
! &OBST ID='FireContainer_201' XB=-27.750,-26.750,71.500,73.000,-4.000,-4.000 SURF_ID='CarriageSurf' THICKEN=.FALSE. /
! &OBST ID='FireContainer_202' XB=-27.750,-26.750,73.000,73.500,-6.250,-6.250 SURF_ID='CarriageSurf' THICKEN=.FALSE. /
! &OBST ID='FireContainer_203' XB=-27.750,-26.750,73.000,73.500,-4.000,-4.000 SURF_ID='CarriageSurf' THICKEN=.FALSE. /
! &OBST ID='FireContainer_204' XB=-27.750,-26.750,73.500,75.000,-6.250,-6.250 SURF_ID='CarriageSurf' THICKEN=.FALSE. /
! &OBST ID='FireContainer_205' XB=-27.750,-26.750,73.500,75.000,-4.000,-4.000 SURF_ID='CarriageSurf' THICKEN=.FALSE. /
! &OBST ID='FireContainer_206' XB=-27.750,-26.750,75.000,75.250,-6.250,-6.250 SURF_ID='CarriageSurf' THICKEN=.FALSE. /
! &OBST ID='FireContainer_207' XB=-27.750,-26.750,75.000,75.250,-4.000,-4.000 SURF_ID='CarriageSurf' THICKEN=.FALSE. /
! &OBST ID='FireContainer_208' XB=-27.750,-26.750,75.250,76.500,-6.250,-6.250 SURF_ID='CarriageSurf' THICKEN=.FALSE. /
! &OBST ID='FireContainer_209' XB=-27.750,-26.750,75.250,76.500,-4.000,-4.000 SURF_ID='CarriageSurf' THICKEN=.FALSE. /
! &OBST ID='FireContainer_210' XB=-27.750,-26.750,76.500,76.750,-6.250,-6.250 SURF_ID='CarriageSurf' THICKEN=.FALSE. /
! &OBST ID='FireContainer_211' XB=-27.750,-26.750,76.500,76.750,-4.000,-4.000 SURF_ID='CarriageSurf' THICKEN=.FALSE. /
! &OBST ID='FireContainer_212' XB=-27.750,-26.750,76.750,78.000,-6.250,-6.250 SURF_ID='CarriageSurf' THICKEN=.FALSE. /
! &OBST ID='FireContainer_213' XB=-27.750,-26.750,76.750,78.000,-4.000,-4.000 SURF_ID='CarriageSurf' THICKEN=.FALSE. /
! &OBST ID='FireContainer_214' XB=-27.750,-26.750,78.000,78.500,-6.250,-6.250 SURF_ID='CarriageSurf' THICKEN=.FALSE. /
! &OBST ID='FireContainer_215' XB=-27.750,-26.750,78.000,78.500,-4.000,-4.000 SURF_ID='CarriageSurf' THICKEN=.FALSE. /
! &OBST ID='FireContainer_216' XB=-27.750,-26.750,78.500,79.500,-6.250,-6.250 SURF_ID='CarriageSurf' THICKEN=.FALSE. /
! &OBST ID='FireContainer_217' XB=-27.750,-26.750,78.500,79.500,-4.000,-4.000 SURF_ID='CarriageSurf' THICKEN=.FALSE. /
! &OBST ID='FireContainer_218' XB=-27.750,-26.750,79.500,80.250,-6.250,-6.250 SURF_ID='CarriageSurf' THICKEN=.FALSE. /