
Compute flowrate weighted average and convert to kg/m^2.
Using default value of extinction coefficient, 45.6 % at T_END.
&HEAD CHID='The_Building' / ! test
! &VENT MB='XMIN' SURF_ID='OPEN' /
! &VENT MB='XMAX' SURF_ID='OPEN' /
! &VENT MB='YMIN' SURF_ID='OPEN' /
! &VENT MB='YMAX' SURF_ID='OPEN' /
! &VENT MB='ZMAX' SURF_ID='OPEN' /
&TAIL /
! ! Properties for all scenarios
! &PROP ACTIVATION_OBSCURATION=12.0,
!       ID='Smoke Detector',
!       LENGTH=1.8,
!       QUANTITY='CHAMBER OBSCURATION' /
